
**** 01/28/17 14:07:52 ******* PSpice Lite (March 2016) ******* ID# 10813 ****

 ** Profile: "SCHEMATIC1-alarmall"  [ C:\Users\burkhk\circuits\alarmall_schematic-PSpiceFiles\SCHEMATIC1\alarmall.sim ] 


 ****     CIRCUIT DESCRIPTION


******************************************************************************




** Creating circuit file "alarmall.cir" 
** WARNING: THIS AUTOMATICALLY GENERATED FILE MAY BE OVERWRITTEN BY SUBSEQUENT SIMULATIONS

*Libraries: 
* Profile Libraries :
* Local Libraries :
* From [PSPICE NETLIST] section of C:\Users\burkhk\AppData\Roaming\SPB_Data\cdssetup\OrCAD_PSpice\17.2.0\PSpice.ini file:
.lib "nomd.lib" 

*Analysis directives: 
.AC DEC 5 1 10000
.OPTIONS ADVCONV
.PROBE64 V(alias(*)) I(alias(*)) W(alias(*)) D(alias(*)) NOISE(alias(*)) 
.INC "..\SCHEMATIC1.net" 



**** INCLUDING SCHEMATIC1.net ****
* source ALARMALL_SCHEMATIC
C_C1         N14290 N14393  .1u  TC=0,0 
R_R1         0 N14393  538 TC=0,0 

**** RESUMING alarmall.cir ****
.END

ERROR(ORPSIM-15141): Less than 2 connections at node N14290.

ERROR(ORPSIM-15142): Node N14290 is floating
